350

H   36.70927554 38.57214654 39.01366168
C   37.39832132 38.77982802 38.19637352
H   36.82423206 38.97247437 37.28444842
H   38.03135591 37.90489042 38.02322387
C   38.23319477 39.98713693 38.56115288
O   38.09068633 40.59715205 39.61724069
N   39.15904063 40.35990882 37.64619303
H   39.19088704 39.89083233 36.73049648
C   40.06487365 41.49733838 37.81930119
H   40.33205961 41.60059338 38.90221515
C   41.31330493 41.30334154 37.01791796
H   41.13829064 41.07915166 35.96149957
H   41.95906813 42.19159664 37.03484783
C   42.24139874 40.23486214 37.51688127
O   43.11459228 39.85139528 36.62329605
O   42.19396255 39.81666412 38.66133260
H   43.38966248 39.11362783 39.48330441
C   39.34260859 42.79186431 37.44678657
O   39.59054855 43.37871696 36.39524366
N   38.40805029 43.21553322 38.33408607
H   38.18864181 42.58011770 39.09518070
C   37.59735828 44.39740121 38.12383028
H   37.35862826 44.84940397 39.08845418
H   38.16302741 45.10876521 37.52073945
H   36.66529208 44.16149089 37.59851953
H   49.18939544 39.13637072 35.93087397
C   48.69070120 39.92413479 36.50371563
H   47.71216166 40.10706237 36.05077228
H   49.29051768 40.83191995 36.45719858
C   48.55490951 39.50606476 37.95002081
O   49.15107053 40.07559498 38.86301600
N   47.70176132 38.48391743 38.19008064
H   47.21954560 38.02167543 37.40642020
C   47.39055213 37.97403087 39.52508884
H   47.35741416 38.83536833 40.24034242
C   46.04640918 37.27028640 39.56980533
H   46.06513828 36.37021393 38.95228112
H   45.78097318 37.01881274 40.59437321
C   44.90047826 38.08145492 39.01707776
O   44.13984908 38.62793738 39.92231528
O   44.74273543 38.20736917 37.81035637
H   43.73337434 39.19013488 37.03862621
C   48.51116857 37.05316162 40.02048560
O   48.35820355 35.83348275 40.06107138
N   49.66332519 37.66746833 40.39073187
H   49.72583551 38.65795440 40.17270800
C   50.83343089 36.95984714 40.86873822
H   51.02800550 37.18799295 41.92140363
H   50.65471327 35.88872791 40.76881932
H   51.70992602 37.23745399 40.27731164
H   36.71762780 38.56607808 39.01297797
C   37.40761852 38.77482733 38.19675190
H   36.83421834 38.97298161 37.28556995
H   38.03797573 37.89870515 38.02007038
C   38.24529465 39.97870436 38.56625571
O   38.09897154 40.58942844 39.62138433
N   39.17750526 40.34843498 37.65616100
H   39.21312877 39.87884822 36.74087896
C   40.08273849 41.48598903 37.83189209
H   40.34308727 41.59220710 38.91619032
C   41.33653605 41.29073305 37.03771159
H   41.16772081 41.05936259 35.98194466
H   41.97722967 42.18295486 37.05244240
C   42.27207525 40.23431975 37.54913077
O   43.16609259 39.82076385 36.70466881
O   42.20272294 39.86610191 38.71960524
H   43.32195217 39.15260303 39.39979126
C   39.36143435 42.77982146 37.45392929
O   39.61294043 43.36408302 36.40175908
N   38.42380401 43.20573069 38.33728136
H   38.20188989 42.57217891 39.09916699
C   37.61357679 44.38702463 38.12191346
H   37.37585473 44.84396180 39.08447166
H   38.17924056 45.09503126 37.51493105
H   36.68093096 44.14905673 37.59858710
H   49.19650603 39.14150924 35.93191296
C   48.69035959 39.92884608 36.49872873
H   47.71456883 40.10658480 36.03800757
H   49.28712382 40.83872636 36.45400283
C   48.54632472 39.51388586 37.94510746
O   49.14088108 40.08250456 38.85969998
N   47.68912198 38.49459733 38.18311330
H   47.20743645 38.03403416 37.39819142
C   47.37130220 37.98575979 39.51705983
H   47.33914407 38.84727975 40.23213440
C   46.02398009 37.28696961 39.55813606
H   46.04233402 36.38646842 38.94049295
H   45.75445536 37.03692256 40.58221093
C   44.88066483 38.10034126 39.00208209
O   44.08474249 38.65229248 39.86025100
O   44.76466207 38.21014222 37.78003034
H   43.79954460 39.14864666 37.14300937
C   48.48774555 37.06132416 40.01556586
O   48.33047944 35.84224430 40.05650712
N   49.64155139 37.67188492 40.38720087
H   49.70758220 38.66232380 40.17010111
C   50.80896383 36.96038006 40.86609761
H   51.00325547 37.18741890 41.91905475
H   50.62712636 35.88985647 40.76548230
H   51.68693429 37.23557785 40.27570333
H   36.72598006 38.56000961 39.01229427
C   37.41691572 38.76982664 38.19713027
H   36.84420463 38.97348885 37.28669147
H   38.04459556 37.89251987 38.01691689
C   38.25739452 39.97027179 38.57135854
O   38.10725676 40.58170482 39.62552797
N   39.19618135 40.33675534 37.66632863
H   39.23564382 39.86665315 36.75147369
C   40.10060333 41.47463968 37.84448300
H   40.35359414 41.58472816 38.93015183
C   41.35976718 41.27812456 37.05750522
H   41.19715099 41.03957351 36.00238975
H   41.99539121 42.17431309 37.07003697
C   42.30275176 40.23377736 37.58138027
O   43.19954901 39.80166632 36.77241103
O   42.21583478 39.89796193 38.77409539
H   43.23381224 39.21071462 39.33279447
C   39.38012600 42.76760250 37.46094322
O   39.63520784 43.34910397 36.40807776
N   38.43955773 43.19592816 38.34047664
H   38.21513797 42.56424013 39.10315327
C   37.62979530 44.37664805 38.11999665
H   37.39308120 44.83851963 39.08048914
H   38.19545371 45.08129730 37.50912265
H   36.69656984 44.13662257 37.59865467
H   49.20361662 39.14664777 35.93295196
C   48.69001797 39.93355737 36.49374182
H   47.71697601 40.10610724 36.02524287
H   49.28372996 40.84553277 36.45080709
C   48.53773993 39.52170696 37.94019411
O   49.13069163 40.08941414 38.85638397
N   47.67750265 38.50468002 38.17621877
H   47.19937459 38.04334704 37.38980175
C   47.35205227 37.99748871 39.50903082
H   47.32101584 38.85911505 40.22399155
C   46.00155099 37.30365281 39.54646679
H   46.01952975 36.40272290 38.92870478
H   45.72793754 37.05503238 40.57004865
C   44.86085140 38.11922761 38.98708641
O   44.04809036 38.66836663 39.80871581
O   44.77531251 38.21980099 37.74810054
H   43.88153364 39.08492619 37.22357025
C   48.46439059 37.06948962 40.01034312
O   48.30300855 35.85090455 40.05084340
N   49.61977759 37.67630150 40.38366987
H   49.68932889 38.66669320 40.16749423
C   50.78449677 36.96091299 40.86345701
H   50.97850544 37.18684484 41.91670588
H   50.59953945 35.89098504 40.76214529
H   51.66394256 37.23370170 40.27409503
H   36.73433231 38.55394115 39.01161057
C   37.42621292 38.76482595 38.19750864
H   36.85419091 38.97399609 37.28781300
H   38.05121538 37.88633459 38.01376341
C   38.26949440 39.96183921 38.57646137
O   38.11554198 40.57398121 39.62967161
N   39.21477262 40.32518178 37.67654563
H   39.25813637 39.85467305 36.76211917
C   40.11846817 41.46329033 37.85707390
H   40.36492088 41.57626595 38.94384026
C   41.38299830 41.26551607 37.07729886
H   41.22658116 41.01978444 36.02283484
H   42.01355275 42.16567132 37.08763154
C   42.33342826 40.23323497 37.61362977
O   43.20628251 39.80433152 36.81508429
O   42.23570315 39.90523987 38.82527872
H   43.12774450 39.28375888 39.27863054
C   39.39867850 42.75539282 37.46791935
O   39.65625904 43.33398581 36.41411540
N   38.45531145 43.18612563 38.34367193
H   38.22838605 42.55630135 39.10713956
C   37.64601381 44.36627147 38.11807984
H   37.41030767 44.83307745 39.07650663
H   38.21166686 45.06756335 37.50331426
H   36.71220872 44.12418840 37.59872223
H   49.21072721 39.15178630 35.93399095
C   48.68967635 39.93826866 36.48875492
H   47.71938319 40.10562967 36.01247816
H   49.28033610 40.85233919 36.44761134
C   48.52915514 39.52952805 37.93528076
O   49.12050218 40.09632373 38.85306795
N   47.66463385 38.51520066 38.16905791
H   47.19429509 38.04887234 37.38069486
C   47.33280234 38.00921764 39.50100180
H   47.30269793 38.87116898 40.21561246
C   45.97912190 37.32033602 39.53479752
H   45.99672548 36.41897739 38.91691661
H   45.70141972 37.07314221 40.55788637
C   44.84103797 38.13811395 38.97209074
O   44.04149040 38.66925829 39.77934366
O   44.76895857 38.23733957 37.71354639
H   43.97713266 39.00056346 37.28440308
C   48.44087118 37.07770651 40.00561623
O   48.27620904 35.85957865 40.04517817
N   49.59800379 37.68071809 40.38013888
H   49.67107558 38.67106260 40.16488735
C   50.76002970 36.96144592 40.86081641
H   50.95375541 37.18627078 41.91435700
H   50.57195254 35.89211360 40.75880827
H   51.64095083 37.23182556 40.27248673
H   36.73001855 38.55592951 39.01052709
C   37.42130455 38.76911774 38.19653035
H   36.84899065 38.97270463 37.28582514
H   38.05177101 37.89406896 38.01538182
C   38.25707946 39.97185456 38.57348641
O   38.09914053 40.58507281 39.62548276
N   39.20191549 40.33825611 37.67439915
H   39.24985556 39.86605675 36.76103180
C   40.09917926 41.48108612 37.85474718
H   40.34310228 41.59644233 38.94180089
C   41.36747369 41.28715780 37.07790388
H   41.21387667 41.04057505 36.02396301
H   41.99364965 42.18982664 37.09410469
C   42.32008642 40.25568427 37.61395933
O   43.15574116 39.79102769 36.82174260
O   42.25219901 39.96545478 38.85817308
H   43.06794869 39.37696239 39.23781562
C   39.37506703 42.76969398 37.46295777
O   39.62885011 43.34596681 36.40707366
N   38.43362611 43.20089617 38.34053309
H   38.20846652 42.57115568 39.10456360
C   37.62313675 44.38033653 38.11590485
H   37.38841888 44.84689199 39.07469921
H   38.18762182 45.08204733 37.50052800
H   36.68887672 44.13771250 37.59767432
H   49.21326388 39.14995393 35.93676533
C   48.69646226 39.93621968 36.49568438
H   47.72533018 40.10828946 36.02285035
H   49.28950392 40.84876629 36.45579344
C   48.53720684 39.52421293 37.94144633
O   49.12023146 40.09562433 38.86136635
N   47.68083314 38.50183992 38.17175745
H   47.22051529 38.02889393 37.38137059
C   47.35180607 37.99070144 39.50243495
H   47.31246369 38.85062800 40.21904290
C   46.00423931 37.28927421 39.52909068
H   46.02964622 36.39093864 38.90834325
H   45.72752795 37.03698358 40.55102854
C   44.86114260 38.10507285 38.97491820
O   44.09332247 38.66357537 39.76945725
O   44.76612852 38.18600834 37.69532548
H   44.03075030 38.88344697 37.33026670
C   48.46629651 37.06690857 40.00670250
O   48.31055940 35.84754882 40.04435137
N   49.61833714 37.67790434 40.38356715
H   49.68403697 38.66920952 40.17097699
C   50.78448796 36.96656004 40.86576135
H   50.97676007 37.19488821 41.91877475
H   50.60227650 35.89604984 40.76615274
H   51.66391777 37.24037301 40.27681647
H   36.72570479 38.55791787 39.00944361
C   37.41639618 38.77340954 38.19555207
H   36.84379039 38.97141318 37.28383729
H   38.05232664 37.90180333 38.01700024
C   38.24466452 39.98186990 38.57051144
O   38.08273908 40.59616441 39.62129391
N   39.18905349 40.35134646 37.67228189
H   39.24169342 39.87732947 36.76005167
C   40.07989035 41.49888191 37.85242046
H   40.32112260 41.61687496 38.93974289
C   41.35194908 41.30879953 37.07850890
H   41.20117217 41.06136567 36.02509118
H   41.97374655 42.21398196 37.10057785
C   42.30674457 40.27813357 37.61428889
O   43.10583439 39.75970139 36.83212063
O   42.26081679 40.05521311 38.88442399
H   43.03484387 39.47023908 39.21882594
C   39.35165530 42.78399037 37.45807910
O   39.60247135 43.35811825 36.40044392
N   38.41194077 43.21566672 38.33739424
H   38.18854699 42.58601001 39.10198765
C   37.60025970 44.39440158 38.11372987
H   37.36653008 44.86070654 39.07289180
H   38.16357679 45.09653132 37.49774174
H   36.66554472 44.15123660 37.59662640
H   49.21580054 39.14812155 35.93953971
C   48.70324816 39.93417070 36.50261385
H   47.73127716 40.11094926 36.03322255
H   49.29867175 40.84519339 36.46397554
C   48.54525854 39.51889780 37.94761190
O   49.11996073 40.09492494 38.86966474
N   47.69828634 38.48793197 38.17463767
H   47.24916784 38.00805782 37.38217625
C   47.37080980 37.97218525 39.50386810
H   47.32229495 38.82983221 40.22264359
C   46.02935672 37.25821239 39.52338384
H   46.06256696 36.36289989 38.89976989
H   45.75363617 37.00082496 40.54417071
C   44.88124723 38.07203176 38.97774567
O   44.14140943 38.67034864 39.75482742
O   44.77215464 38.10058063 37.68581551
H   44.06045630 38.76526316 37.35700782
C   48.49157165 37.05614998 40.00801722
O   48.34488893 35.83557378 40.04321280
N   49.63867049 37.67509060 40.38699542
H   49.69699835 38.66735643 40.17706664
C   50.80894623 36.97167416 40.87070630
H   50.99976474 37.20350564 41.92319251
H   50.63260047 35.89998607 40.77349720
H   51.68688471 37.24892047 40.28114622
H   36.72139104 38.55990623 39.00836013
C   37.41148781 38.77770133 38.19457378
H   36.83859012 38.97012173 37.28184944
H   38.05288227 37.90953771 38.01861866
C   38.23224959 39.99188525 38.56753647
O   38.06633763 40.60725602 39.61710506
N   39.17614676 40.36448689 37.67021635
H   39.23423781 39.88818962 36.75943434
C   40.06060143 41.51667770 37.85009374
H   40.29925395 41.63683216 38.93773228
C   41.33642446 41.33044126 37.07911393
H   41.18846768 41.08215629 36.02621935
H   41.95384345 42.23813728 37.10705100
C   42.29340272 40.30058287 37.61461845
O   43.05072141 39.71158527 36.85007798
O   42.28227401 40.16002565 38.90429364
H   43.02818021 39.56327554 39.21864000
C   39.32796435 42.79828167 37.45315407
O   39.57435786 43.37008250 36.39320214
N   38.39025543 43.23043726 38.33425540
H   38.16862746 42.60086434 39.09941169
C   37.57738264 44.40846664 38.11155489
H   37.34464128 44.87452108 39.07108439
H   38.13953175 45.11101530 37.49495548
H   36.64221272 44.16476069 37.59557848
H   49.21833720 39.14628918 35.94231408
C   48.71003407 39.93212172 36.50954331
H   47.73722415 40.11360905 36.04359474
H   49.30783958 40.84162049 36.47215763
C   48.55331024 39.51358267 37.95377747
O   49.11969001 40.09422555 38.87796313
N   47.71448093 38.47467919 38.17715275
H   47.27649798 37.98713442 37.38280059
C   47.38981353 37.95366906 39.50530125
H   47.33208299 38.80940377 40.22570127
C   46.05447413 37.22715058 39.51767700
H   46.09548770 36.33486114 38.89119653
H   45.77974440 36.96466633 40.53731288
C   44.90135186 38.03899066 38.98057313
O   44.18827549 38.68826900 39.73199780
O   44.76862471 37.99899690 37.68402710
H   44.06478866 38.64469897 37.36669294
C   48.51702859 37.04548530 40.00914996
O   48.37948442 35.82381785 40.04262122
N   49.65900384 37.67227685 40.39042370
H   49.70995974 38.66550335 40.18315629
C   50.83340449 36.97678829 40.87565125
H   51.02276940 37.21212308 41.92761026
H   50.66292443 35.90392230 40.78084167
H   51.70985166 37.25746792 40.28547597
