50 
 
H   36.70927554 38.57214654 39.01366168
C   37.39832132 38.77982802 38.19637352
H   36.82423206 38.97247437 37.28444842
H   38.03135591 37.90489042 38.02322387
C   38.23319477 39.98713693 38.56115288
O   38.09068633 40.59715205 39.61724069
N   39.15904063 40.35990882 37.64619303
H   39.19088704 39.89083233 36.73049648
C   40.06487365 41.49733838 37.81930119
H   40.33205961 41.60059338 38.90221515
C   41.31330493 41.30334154 37.01791796
H   41.13829064 41.07915166 35.96149957
H   41.95906813 42.19159664 37.03484783
C   42.24139874 40.23486214 37.51688127
O   43.11459228 39.85139528 36.62329605
O   42.19396255 39.81666412 38.66133260
H   43.38966248 39.11362783 39.48330441
C   39.34260859 42.79186431 37.44678657
O   39.59054855 43.37871696 36.39524366
N   38.40805029 43.21553322 38.33408607
H   38.18864181 42.58011770 39.09518070
C   37.59735828 44.39740121 38.12383028
H   37.35862826 44.84940397 39.08845418
H   38.16302741 45.10876521 37.52073945
H   36.66529208 44.16149089 37.59851953
H   49.18939544 39.13637072 35.93087397
C   48.69070120 39.92413479 36.50371563
H   47.71216166 40.10706237 36.05077228
H   49.29051768 40.83191995 36.45719858
C   48.55490951 39.50606476 37.95002081
O   49.15107053 40.07559498 38.86301600
N   47.70176132 38.48391743 38.19008064
H   47.21954560 38.02167543 37.40642020
C   47.39055213 37.97403087 39.52508884
H   47.35741416 38.83536833 40.24034242
C   46.04640918 37.27028640 39.56980533
H   46.06513828 36.37021393 38.95228112
H   45.78097318 37.01881274 40.59437321
C   44.90047826 38.08145492 39.01707776
O   44.13984908 38.62793738 39.92231528
O   44.74273543 38.20736917 37.81035637
H   43.73337434 39.19013488 37.03862621
C   48.51116857 37.05316162 40.02048560
O   48.35820355 35.83348275 40.06107138
N   49.66332519 37.66746833 40.39073187
H   49.72583551 38.65795440 40.17270800
C   50.83343089 36.95984714 40.86873822
H   51.02800550 37.18799295 41.92140363
H   50.65471327 35.88872791 40.76881932
H   51.70992602 37.23745399 40.27731164
